/* This input file provides the adjustable run-time parameters for version 6 of
   the Modular Ocean Model (MOM6), a numerical ocean model developed at NOAA-GFDL.
   Where appropriate, parameters use usually given in MKS units.

   This particular file is for the example in Neverland.

   This MOM_input file typically contains only the non-default values that are
   needed to reproduce this example.  A full list of parameters for this example
   can be found in the corresponding MOM_parameter_doc.all file which is
   generated by the model at run-time. */

! === module MOM ===
ENABLE_THERMODYNAMICS = False   !   [Boolean] default = True
                                ! If true, Temperature and salinity are used as state
                                ! variables.
ADIABATIC = True                !   [Boolean] default = False
                                ! There are no diapycnal mass fluxes if ADIABATIC is
                                ! true. This assumes that KD = KDML = 0.0 and that
                                ! there is no buoyancy forcing, but makes the model
                                ! faster by eliminating subroutine calls.
THICKNESSDIFFUSE = True         !   [Boolean] default = False
                                ! If true, interface heights are diffused with a
                                ! coefficient of KHTH.
THICKNESSDIFFUSE_FIRST = True   !   [Boolean] default = False
                                ! If true, do thickness diffusion before dynamics.
                                ! This is only used if THICKNESSDIFFUSE is true.
DT = 3600.0                     !   [s]
                                ! The (baroclinic) dynamics time step.  The time-step that
                                ! is actually used will be an integer fraction of the
                                ! forcing time-step (DT_FORCING in ocean-only mode or the
                                ! coupling timestep in coupled mode.)
DTBT_RESET_PERIOD = 0.0         !   [s] default = 900.0
                                ! The period between recalculations of DTBT (if DTBT <= 0).
                                ! If DTBT_RESET_PERIOD is negative, DTBT is set based
                                ! only on information available at initialization.  If
                                ! dynamic, DTBT will be set at least every forcing time
                                ! step, and if 0, every dynamics time step.  The default is
                                ! set by DT_THERM.  This is only used if SPLIT is true.
SAVE_INITIAL_CONDS = True       !   [Boolean] default = False
                                ! If true, write the initial conditions to a file given
                                ! by IC_OUTPUT_FILE.

! === module MOM_domains ===
NIGLOBAL = 90                   !
                                ! The total number of thickness grid points in the
                                ! x-direction in the physical domain. With STATIC_MEMORY_
                                ! this is set in MOM_memory.h at compile time.
NJGLOBAL = 72                   !
                                ! The total number of thickness grid points in the
                                ! y-direction in the physical domain. With STATIC_MEMORY_
                                ! this is set in MOM_memory.h at compile time.

! === module MOM_hor_index ===
! Sets the horizontal array index types.

! === module MOM_verticalGrid ===
! Parameters providing information about the vertical grid.
G_EARTH = 10.0                  !   [m s-2] default = 9.8
                                ! The gravitational acceleration of the Earth.
RHO_0 = 1000.0                  !   [kg m-3] default = 1035.0
                                ! The mean ocean density used with BOUSSINESQ true to
                                ! calculate accelerations and the mass for conservation
                                ! properties, or with BOUSSINSEQ false to convert some
                                ! parameters from vertical units of m to kg m-2.
NK = 6                          !   [nondim]
                                ! The number of model layers.

! === module MOM_tracer_registry ===

! === module MOM_restart ===

! === module MOM_tracer_flow_control ===

! === module MOM_fixed_initialization ===

! === module MOM_grid_init ===
GRID_CONFIG = "mercator"        !
                                ! A character string that determines the method for
                                ! defining the horizontal grid.  Current options are:
                                !     mosaic - read the grid from a mosaic (supergrid)
                                !              file set by GRID_FILE.
                                !     cartesian - use a (flat) Cartesian grid.
                                !     spherical - use a simple spherical grid.
                                !     mercator - use a Mercator spherical grid.
SOUTHLAT = -65.0                !   [degrees]
                                ! The southern latitude of the domain.
LENLAT = 50.833129262744606     !   [degrees]
                                ! The latitudinal length of the domain.
LENLON = 90.0                   !   [degrees]
                                ! The longitudinal length of the domain.
ISOTROPIC = True                !   [Boolean] default = False
                                ! If true, an isotropic grid on a sphere (also known as
                                ! a Mercator grid) is used. With an isotropic grid, the
                                ! meridional extent of the domain (LENLAT), the zonal
                                ! extent (LENLON), and the number of grid points in each
                                ! direction are _not_ independent. In MOM the meridional
                                ! extent is determined to fit the zonal extent and the
                                ! number of grid points, while grid is perfectly isotropic.
EQUATOR_REFERENCE = False       !   [Boolean] default = True
                                ! If true, the grid is defined to have the equator at the
                                ! nearest q- or h- grid point to (-LOWLAT*NJGLOBAL/LENLAT).
TOPO_CONFIG = "Neverland"       !
                                ! This specifies how bathymetry is specified:
                                !     file - read bathymetric information from the file
                                !       specified by (TOPO_FILE).
                                !     flat - flat bottom set to MAXIMUM_DEPTH.
                                !     bowl - an analytically specified bowl-shaped basin
                                !       ranging between MAXIMUM_DEPTH and MINIMUM_DEPTH.
                                !     spoon - a similar shape to 'bowl', but with an vertical
                                !       wall at the southern face.
                                !     halfpipe - a zonally uniform channel with a half-sine
                                !       profile in the meridional direction.
                                !     benchmark - use the benchmark test case topography.
                                !     Neverland - use the Neverland test case topography.
                                !     DOME - use a slope and channel configuration for the
                                !       DOME sill-overflow test case.
                                !     ISOMIP - use a slope and channel configuration for the
                                !       ISOMIP test case.
                                !     DOME2D - use a shelf and slope configuration for the
                                !       DOME2D gravity current/overflow test case.
                                !     seamount - Gaussian bump for spontaneous motion test case.
                                !     Phillips - ACC-like idealized topography used in the Phillips config.
                                !     USER - call a user modified routine.

! === module Neverland_initialize_topography ===
NL_ROUGHNESS_AMP = 0.00         !   [not defined] default = 0.05
                                ! Amplitude of wavy signal in bathymetry.
MINIMUM_DEPTH = 1.0             !   [m] default = 0.0
                                ! If MASKING_DEPTH is unspecified, then anything shallower than
                                ! MINIMUM_DEPTH is assumed to be land and all fluxes are masked out.
                                ! If MASKING_DEPTH is specified, then all depths shallower than
                                ! MINIMUM_DEPTH but deeper than MASKING_DEPTH are rounded to MINIMUM_DEPTH.
MAXIMUM_DEPTH = 4000.0          !   [m]
                                ! The maximum depth of the ocean.

! === module MOM_open_boundary ===
! Controls where open boundaries are located, what kind of boundary condition to impose, and what data to apply, if any.

! === module MOM_coord_initialization ===
COORD_CONFIG = "file"           !
                                ! This specifies how layers are to be defined:
                                !     file - read coordinate information from the file
                                !       specified by (COORD_FILE).
                                !     linear - linear based on interfaces not layers
                                !     layer_ref - linear based on layer densities
                                !     ts_ref - use reference temperature and salinity
                                !     ts_range - use range of temperature and salinity
                                !       (T_REF and S_REF) to determine surface density
                                !       and GINT calculate internal densities.
                                !     gprime - use reference density (RHO_0) for surface
                                !       density and GINT calculate internal densities.
                                !     ts_profile - use temperature and salinity profiles
                                !       (read from COORD_FILE) to set layer densities.
                                !     USER - call a user modified routine.
COORD_FILE = "coordinate.nc"    !
                                ! The file from which the coordinate densities are read.

! === module MOM_grid ===
! Parameters providing information about the lateral grid.

! === module MOM_state_initialization ===
THICKNESS_CONFIG = "Neverland"  !
                                ! A string that determines how the initial layer
                                ! thicknesses are specified for a new run:
                                !     file - read interface heights from the file specified
                                !     thickness_file - read thicknesses from the file specified
                                !       by (THICKNESS_FILE).
                                !     coord - determined by ALE coordinate.
                                !     uniform - uniform thickness layers evenly distributed
                                !       between the surface and MAXIMUM_DEPTH.
                                !     DOME - use a slope and channel configuration for the
                                !       DOME sill-overflow test case.
                                !     ISOMIP - use a configuration for the
                                !       ISOMIP test case.
                                !     benchmark - use the benchmark test case thicknesses.
                                !     Neverland - use the Neverland test case thicknesses.
                                !     search - search a density profile for the interface
                                !       densities. This is not yet implemented.
                                !     circle_obcs - the circle_obcs test case is used.
                                !     DOME2D - 2D version of DOME initialization.
                                !     adjustment2d - TBD AJA.
                                !     sloshing - TBD AJA.
                                !     seamount - TBD AJA.
                                !     rossby_front - a mixed layer front in thermal wind balance.
                                !     USER - call a user modified routine.
INIT_THICKNESS_PROFILE = 150.0, 250.0, 600.0, 3*1000.0 !   [m]
                                ! Profile of initial layer thicknesses.

! === module MOM_diag_mediator ===

! === module MOM_MEKE ===

! === module MOM_wave_speed ===

! === module MOM_lateral_mixing_coeffs ===
RESOLN_SCALED_KH = False        !   [Boolean] default = False
                                ! If true, the Laplacian lateral viscosity is scaled away
                                ! when the first baroclinic deformation radius is well
                                ! resolved.
RESOLN_SCALED_KHTH = True       !   [Boolean] default = False
                                ! If true, the interface depth diffusivity is scaled away
                                ! when the first baroclinic deformation radius is well
                                ! resolved.
RESOLN_SCALED_KHTR = True       !   [Boolean] default = False
                                ! If true, the epipycnal tracer diffusivity is scaled
                                ! away when the first baroclinic deformation radius is
                                ! well resolved.
KHTH_SLOPE_CFF = 0.1            !   [nondim] default = 0.0
                                ! The nondimensional coefficient in the Visbeck formula
                                ! for the interface depth diffusivity
KHTR_SLOPE_CFF = 0.1            !   [nondim] default = 0.0
                                ! The nondimensional coefficient in the Visbeck formula
                                ! for the epipycnal tracer diffusivity
VARMIX_KTOP = 6                 !   [nondim] default = 2
                                ! The layer number at which to start vertical integration
                                ! of S*N for purposes of finding the Eady growth rate.
VISBECK_L_SCALE = 3.0E+04       !   [m] default = 0.0
                                ! The fixed length scale in the Visbeck formula.

! === module MOM_set_visc ===
PRANDTL_TURB = 0.0              !   [nondim] default = 1.0
                                ! The turbulent Prandtl number applied to shear
                                ! instability.
DYNAMIC_VISCOUS_ML = True       !   [Boolean] default = False
                                ! If true, use a bulk Richardson number criterion to
                                ! determine the mixed layer thickness for viscosity.
ML_OMEGA_FRAC = 1.0             !   [nondim] default = 0.0
                                ! When setting the decay scale for turbulence, use this
                                ! fraction of the absolute rotation rate blended with the
                                ! local value of f, as sqrt((1-of)*f^2 + of*4*omega^2).
HBBL = 10.0                     !   [m]
                                ! The thickness of a bottom boundary layer with a
                                ! viscosity of KVBBL if BOTTOMDRAGLAW is not defined, or
                                ! the thickness over which near-bottom velocities are
                                ! averaged for the drag law if BOTTOMDRAGLAW is defined
                                ! but LINEAR_DRAG is not.
DRAG_BG_VEL = 0.1               !   [m s-1] default = 0.0
                                ! DRAG_BG_VEL is either the assumed bottom velocity (with
                                ! LINEAR_DRAG) or an unresolved  velocity that is
                                ! combined with the resolved velocity to estimate the
                                ! velocity magnitude.  DRAG_BG_VEL is only used when
                                ! BOTTOMDRAGLAW is defined.
BBL_THICK_MIN = 0.1             !   [m] default = 0.0
                                ! The minimum bottom boundary layer thickness that can be
                                ! used with BOTTOMDRAGLAW. This might be
                                ! Kv / (cdrag * drag_bg_vel) to give Kv as the minimum
                                ! near-bottom viscosity.
KV = 1.0E-04                    !   [m2 s-1]
                                ! The background kinematic viscosity in the interior.
                                ! The molecular value, ~1e-6 m2 s-1, may be used.

! === module MOM_continuity ===

! === module MOM_continuity_PPM ===
ETA_TOLERANCE = 1.0E-06         !   [m] default = 3.0E-10
                                ! The tolerance for the differences between the
                                ! barotropic and baroclinic estimates of the sea surface
                                ! height due to the fluxes through each face.  The total
                                ! tolerance for SSH is 4 times this value.  The default
                                ! is 0.5*NK*ANGSTROM, and this should not be set less x
                                ! than about 10^-15*MAXIMUM_DEPTH.
VELOCITY_TOLERANCE = 0.001      !   [m s-1] default = 3.0E+08
                                ! The tolerance for barotropic velocity discrepancies
                                ! between the barotropic solution and  the sum of the
                                ! layer thicknesses.

! === module MOM_CoriolisAdv ===
BOUND_CORIOLIS = True           !   [Boolean] default = False
                                ! If true, the Coriolis terms at u-points are bounded by
                                ! the four estimates of (f+rv)v from the four neighboring
                                ! v-points, and similarly at v-points.  This option would
                                ! have no effect on the SADOURNY Coriolis scheme if it
                                ! were possible to use centered difference thickness fluxes.

! === module MOM_PressureForce ===

! === module MOM_PressureForce_AFV ===

! === module MOM_hor_visc ===
AH_VEL_SCALE = 0.0             !   [m s-1] default = 0.0
                                ! The velocity scale which is multiplied by the cube of
                                ! the grid spacing to calculate the biharmonic viscosity.
                                ! The final viscosity is the largest of this scaled
                                ! viscosity, the Smagorinsky viscosity and AH.
SMAGORINSKY_AH = True           !   [Boolean] default = False
                                ! If true, use a biharmonic Smagorinsky nonlinear eddy
                                ! viscosity.
SMAG_BI_CONST = 0.06            !   [nondim] default = 0.0
                                ! The nondimensional biharmonic Smagorinsky constant,
                                ! typically 0.015 - 0.06.

! === module MOM_vert_friction ===
DIRECT_STRESS = True            !   [Boolean] default = False
                                ! If true, the wind stress is distributed over the
                                ! topmost HMIX_STRESS of fluid (like in HYCOM), and KVML
                                ! may be set to a very small value.
U_TRUNC_FILE = "U_velocity_truncations" ! default = ""
                                ! The absolute path to a file into which the accelerations
                                ! leading to zonal velocity truncations are written.
                                ! Undefine this for efficiency if this diagnostic is not
                                ! needed.
V_TRUNC_FILE = "V_velocity_truncations" ! default = ""
                                ! The absolute path to a file into which the accelerations
                                ! leading to meridional velocity truncations are written.
                                ! Undefine this for efficiency if this diagnostic is not
                                ! needed.
HMIX_FIXED = 20.0               !   [m]
                                ! The prescribed depth over which the near-surface
                                ! viscosity and diffusivity are elevated when the bulk
                                ! mixed layer is not used.
KVML = 1.0E-02                  !   [m2 s-1] default = 1.0E-04
                                ! The kinematic viscosity in the mixed layer.  A typical
                                ! value is ~1e-2 m2 s-1. KVML is not used if
                                ! BULKMIXEDLAYER is true.  The default is set by KV.
MAXVEL = 10.0                   !   [m s-1] default = 3.0E+08
                                ! The maximum velocity allowed before the velocity
                                ! components are truncated.

! === module MOM_PointAccel ===

! === module MOM_barotropic ===
BOUND_BT_CORRECTION = True      !   [Boolean] default = False
                                ! If true, the corrective pseudo mass-fluxes into the
                                ! barotropic solver are limited to values that require
                                ! less than maxCFL_BT_cont to be accommodated.
NONLINEAR_BT_CONTINUITY = True  !   [Boolean] default = False
                                ! If true, use nonlinear transports in the barotropic
                                ! continuity equation.  This does not apply if
                                ! USE_BT_CONT_TYPE is true.
BT_PROJECT_VELOCITY = True      !   [Boolean] default = False
                                ! If true, step the barotropic velocity first and project
                                ! out the velocity tendancy by 1+BEBT when calculating the
                                ! transport.  The default (false) is to use a predictor
                                ! continuity step to find the pressure field, and then
                                ! to do a corrector continuity step using a weighted
                                ! average of the old and new velocities, with weights
                                ! of (1-BEBT) and BEBT.
BEBT = 0.2                      !   [nondim] default = 0.1
                                ! BEBT determines whether the barotropic time stepping
                                ! uses the forward-backward time-stepping scheme or a
                                ! backward Euler scheme. BEBT is valid in the range from
                                ! 0 (for a forward-backward treatment of nonrotating
                                ! gravity waves) to 1 (for a backward Euler treatment).
                                ! In practice, BEBT must be greater than about 0.05.
DTBT = -0.95                    !   [s or nondim] default = -0.98
                                ! The barotropic time step, in s. DTBT is only used with
                                ! the split explicit time stepping. To set the time step
                                ! automatically based the maximum stable value use 0, or
                                ! a negative value gives the fraction of the stable value.
                                ! Setting DTBT to 0 is the same as setting it to -0.98.
                                ! The value of DTBT that will actually be used is an
                                ! integer fraction of DT, rounding down.

! === module MOM_thickness_diffuse ===
KHTH = 1000.0                   !   [m2 s-1] default = 0.0
                                ! The background horizontal thickness diffusivity.

! === module MOM_mixed_layer_restrat ===

! === module MOM_diag_to_Z ===

! === module MOM_diabatic_driver ===
! The following parameters are used for diabatic processes.

! === module MOM_tracer_advect ===

! === module MOM_tracer_hor_diff ===
KHTR = 1.0                      !   [m2 s-1] default = 0.0
                                ! The background along-isopycnal tracer diffusivity.
KHTR_MAX = 900.0                !   [m2 s-1] default = 0.0
                                ! The maximum along-isopycnal tracer diffusivity.
DIFFUSE_ML_TO_INTERIOR = True   !   [Boolean] default = False
                                ! If true, enable epipycnal mixing between the surface
                                ! boundary layer and the interior.
ML_KHTR_SCALE = 0.0             !   [nondim] default = 1.0
                                ! With Diffuse_ML_interior, the ratio of the truly
                                ! horizontal diffusivity in the mixed layer to the
                                ! epipycnal diffusivity.  The valid range is 0 to 1.

! === module MOM_neutral_diffusion ===
! This module implements neutral diffusion of tracers

! === module MOM_surface_forcing ===
BUOY_CONFIG = "zero"            !
                                ! The character string that indicates how buoyancy forcing
                                ! is specified. Valid options include (file), (zero),
                                ! (linear), (USER), and (NONE).
WIND_CONFIG = "Neverland"       !
                                ! The character string that indicates how wind forcing
                                ! is specified. Valid options include (file), (2gyre),
                                ! (1gyre), (gyres), (zero), and (USER).
RESTOREBUOY = False             !   [Boolean] default = False
                                ! If true, the buoyancy fluxes drive the model back
                                ! toward some specified surface state with a rate
                                ! given by FLUXCONST.
FLUXCONST = 0.5                 !   [m day-1]
                                ! The constant that relates the restoring surface fluxes
                                ! to the relative surface anomalies (akin to a piston
                                ! velocity).  Note the non-MKS units.
SST_NORTH = 27.0                !   [deg C] default = 0.0
                                ! With buoy_config linear, the sea surface temperature
                                ! at the northern end of the domain toward which to
                                ! to restore.
SST_SOUTH = 3.0                 !   [deg C] default = 0.0
                                ! With buoy_config linear, the sea surface temperature
                                ! at the southern end of the domain toward which to
                                ! to restore.

! === module Neverland_surface_forcing ===

! === module MOM_restart ===

! === module MOM_sum_output ===
MAXTRUNC = 5000                 !   [truncations save_interval-1] default = 0
                                ! The run will be stopped, and the day set to a very
                                ! large value if the velocity is truncated more than
                                ! MAXTRUNC times between energy saves.  Set MAXTRUNC to 0
                                ! to stop if there is any truncation of velocities.

! === module MOM_write_cputime ===
MAXCPU = -1.0                   !   [wall-clock seconds] default = -1.0
                                ! The maximum amount of cpu time per processor for which
                                ! MOM should run before saving a restart file and
                                ! quitting with a return value that indicates that a
                                ! further run is required to complete the simulation.
                                ! If automatic restarts are not desired, use a negative
                                ! value for MAXCPU.  MAXCPU has units of wall-clock
                                ! seconds, so the actual CPU time used is larger by a
                                ! factor of the number of processors used.

! === module MOM_main (MOM_driver) ===
DT_FORCING = 3600.0             !   [s] default = 900.0
                                ! The time step for changing forcing, coupling with other
                                ! components, or potentially writing certain diagnostics.
                                ! The default value is given by DT.
DAYMAX = 5000.0                 !   [days]
                                ! The final time of the whole simulation, in units of
                                ! TIMEUNIT seconds.  This also sets the potential end
                                ! time of the present run segment if the end time is
                                ! not set via ocean_solo_nml in input.nml.
RESTART_CONTROL = 3             ! default = 1
                                ! An integer whose bits encode which restart files are
                                ! written. Add 2 (bit 1) for a time-stamped file, and odd
                                ! (bit 0) for a non-time-stamped file. A non-time-stamped
                                ! restart file is saved at the end of the run segment
                                ! for any non-negative value.
RESTINT = 365.0                 !   [days] default = 0.0
                                ! The interval between saves of the restart file in units
                                ! of TIMEUNIT.  Use 0 (the default) to not save
                                ! incremental restart files at all.
ENERGYSAVEDAYS = 5.0            !   [days] default = 0.0416666666666667
                                ! The interval in units of TIMEUNIT between saves of the
                                ! energies of the run and other globally summed diagnostics.

! === module MOM_file_parser ===
